[General]
sim-time-limit = 90s
**.cmdenv-log-level = off

[Config BasicExperiment]
network = BasicNetwork
**.configName = "BasicExperiment"
**.verboseLog = true

*.node[0].generationRate = 3

*.node[2].processingScale = 1
*.node[2].processingRateFile = "./inputs/azure.csv"


**.maxInboxSize = 20
*.config.networkProcessingRate = 3




[Config DynamicBasicTesting]
network = DynamicNetworkBasic
**.configName = "DynamicBasicTesting"

**.verboseLog = false
sim-time-limit = 180s

*.config.networkProcessingRate = 100
*.config.n = 100
*.config.minProcessingScale = 0.9
*.config.maxProcessingScale = 3.5
*.config.minGenerationThreshold = 1.3

**.maxInboxSize = 250
**.cappedProcessingRate = false

[Config DynamicV1Testing]
extends = DynamicBasicTesting
network = DynamicNetworkV1
**.configName = "DynamicV1Testing"

**.maxOutboxSize = 250




[Config BasicExperimentV1]
network = V1Network
**.configName = "BasicExperimentV1"

*.node[0].generationRate = 3

*.node[2].targetProcessingRate = 0.5
*.node[2].processingChangeInterval = 10

**.maxInboxSize = 50
**.maxInboxSize = 25
**.networkProcessingRate = 3
**.processingRateRandom = uniform(1,1)




[Config ShowProblem]
network = BasicNetwork
**.configName = "ShowProblem"
sim-time-limit = 719s

#*.node[0].generationRate = 1000
#
#*.node[2].targetProcessingRate = 0.4
#*.node[2].processingChangeInterval = 10
#
#**.maxInboxSize = 10000
#**.networkProcessingRate = 1000
#**.processingRateRandom = uniform(1,1)

*.node[0].generationScale = 1000

*.node[2].processingRateFile = "./inputs/azure.csv"


**.maxInboxSize = 0
**.networkProcessingRate = 1000
**.processingRateFile = "./inputs/constant.csv"

**.generationScale = 0
**.generationRateFile = "./inputs/constant.csv"

[Config ShowProblemV1]
network = V1Network
**.configName = "ShowProblemV1"

*.node[0].generationRate = 1000

*.node[2].targetProcessingRate = 0.4
*.node[2].processingChangeInterval = 10

**.maxInboxSize = 10000
**.maxOutboxSize = 5000
**.networkProcessingRate = 1000
**.processingRateRandom = uniform(1,1)









# Attacks
[Config ExceedSendingRateSimple]
network = MaliciousNetworkSimple
**.configName = "ExceedSendingRateSimple"
**.verboseLog = true
sim-time-limit = 60s

*.node[0].generationRate = 10
*.node[0].processingScale = 1.5
*.node[0].processingRateFile = "./inputs/constant.csv"

*.node[1].processingScale = 2
*.node[1].processingRateFile = "./inputs/constant.csv"

*.node[2].processingScale = 1.2
*.node[2].processingRateFile = "./inputs/aws.csv"
#*.node[2].processingRateFile = "./inputs/constant.csv"

*.config.networkProcessingRate = 10
*.config.n = 3
**.maxInboxSize = 25
**.maxOutboxSize = 25


*.node[1].maliciousPacingRate = 1
*.node[1].maliciousStartTime = 40
*.node[1].maliciousGateIndex = -1


[Config LowHealthSimple]
network = MaliciousNetworkSimple
**.configName = "LowHealthSimple"
**.verboseLog = true
sim-time-limit = 60s

*.node[0].generationRate = 5
*.node[0].processingScale = 1.5
*.node[0].processingRateFile = "./inputs/constant.csv"

*.node[1].generationRate = 5
*.node[1].processingScale = 2
*.node[1].processingRateFile = "./inputs/constant.csv"

*.node[2].processingScale = 1.2
*.node[2].processingRateFile = "./inputs/aws.csv"
#*.node[2].processingRateFile = "./inputs/constant.csv"

*.config.networkProcessingRate = 10
*.config.n = 3
**.maxInboxSize = 25
**.maxOutboxSize = 25

*.node[1].maliciousStartTime = 10
*.node[1].maliciousHealth = 0.01
*.node[1].disableDefenseEngine = true






# Thesis 
[Config ExceedSendingRateAttack]
extends = Scenario1V1
**.configName = "ExceedSendingRateAttack"
sim-time-limit = 60s

*.node[7].maliciousPacingRate = 115
*.node[7].maliciousStartTime = 10
*.node[7].maliciousGateIndex = 0

[Config ExceedSendingRateAttackDisabledDefense]
extends = ExceedSendingRateAttack
**.configName = "ExceedSendingRateAttackDisabledDefense"

**.disableDefenseEngine = true


[Config SubceedSendingRateAttack]
extends = Scenario1V1
**.configName = "SubceedSendingRateAttack"
sim-time-limit = 60s

*.node[7].maliciousPacingRate = 10
*.node[7].maliciousStartTime = 40
*.node[7].maliciousGateIndex = 0



[Config LowHealthAttack]
extends = Scenario1V1
**.configName = "LowHealthAttack"
sim-time-limit = 60s


*.node[1].maliciousStartTime = 10
*.node[1].maliciousHealth = 0.01
*.node[1].disableDefenseEngine = true
*.node[1].generationRate = 5 # the malicious node needs to generate messages, otherwise it won't have anything to send and will be dropped before by the sending rate defense

*.node[5].generationRate = 50




[Config Scenario1]
network = Scenario1
**.configName = "Scenario1"
**.verboseLog = true
sim-time-limit = 180s

*.node[0].generationRate = 20
*.node[0].processingScale = 1.5
*.node[0].processingRateFile = "./inputs/constant.csv"

*.node[1].processingScale = 1
*.node[1].processingRateFile = "./inputs/constant.csv"

*.node[2].processingScale = 1
*.node[2].processingRateFile = "./inputs/aws.csv"

*.node[3].generationRate = 10
*.node[3].processingScale = 2
*.node[3].processingRateFile = "./inputs/dimension_data.csv"

*.node[4].processingScale = 1
*.node[4].processingRateFile = "./inputs/azure.csv"

*.node[5].generationRate = 55
*.node[5].processingScale = 2.3
*.node[5].processingRateFile = "./inputs/azure.csv"

*.node[6].processingScale = 1.9
*.node[6].processingRateFile = "./inputs/constant.csv"

*.node[7].processingScale = 3
*.node[7].processingRateFile = "./inputs/constant.csv"

*.node[8].generationRate = 15
*.node[8].processingScale = 2.1
*.node[8].processingRateFile = "./inputs/aws.csv"

*.node[9].processingScale = 1.2
*.node[9].processingRateFile = "./inputs/constant.csv"

*.config.networkProcessingRate = 100
*.config.n = 10
**.maxInboxSize = 250

[Config Scenario1FFA]
extends = Scenario1
**.configName = "Scenario1FFA"
**.cappedProcessingRate = false

[Config Scenario1V1]
extends = Scenario1
network = Scenario1V1
**.configName = "Scenario1V1"

**.maxOutboxSize = 250






# Thesis 2nd micro scenario
[Config Scenario2]
network = Scenario1
**.configName = "Scenario2"
**.verboseLog = true
sim-time-limit = 180s

*.node[0].processingScale = 1.1
*.node[0].processingRateFile = "./inputs/constant.csv"

*.node[1].generationRate = 20
*.node[1].processingScale = 2.5
*.node[1].processingRateFile = "./inputs/constant.csv"

*.node[2].generationRate = 10
*.node[2].processingScale = 1.7
*.node[2].processingRateFile = "./inputs/aws.csv"

*.node[3].generationRate = 20
*.node[3].processingScale = 1.9
*.node[3].processingRateFile = "./inputs/constant.csv"

*.node[4].processingScale = 1.3
*.node[4].processingRateFile = "./inputs/aws.csv"

*.node[5].generationRate = 20
*.node[5].processingScale = 2
*.node[5].processingRateFile = "./inputs/constant.csv"

*.node[6].generationRate = 5
*.node[6].processingScale = 1.7
*.node[6].processingRateFile = "./inputs/azure.csv"

*.node[7].processingScale = 1.05
*.node[7].processingRateFile = "./inputs/dimension_data.csv"

*.node[8].generationRate = 15
*.node[8].processingScale = 2.7
*.node[8].processingRateFile = "./inputs/azure.csv"

*.node[9].generationRate = 10
*.node[9].processingScale = 2.1
*.node[9].processingRateFile = "./inputs/constant.csv"


*.config.networkProcessingRate = 100
*.config.n = 10
**.maxInboxSize = 250


[Config Scenario2V1]
extends = Scenario2
network = Scenario1V1
**.configName = "Scenario2V1"

**.maxOutboxSize = 250





# inbox test series for Thesis
[Config Scenario2Inbox100]
extends = Scenario2
**.configName = "Scenario2Inbox100"
**.maxInboxSize = 100

[Config Scenario2V1Inbox100]
extends = Scenario2Inbox100
network = Scenario1V1
**.configName = "Scenario2V1Inbox100"
**.maxOutboxSize = 250

[Config Scenario2Inbox500]
extends = Scenario2
**.configName = "Scenario2Inbox500"
**.maxInboxSize = 500

[Config Scenario2V1Inbox500]
extends = Scenario2Inbox500
network = Scenario1V1
**.configName = "Scenario2V1Inbox500"
**.maxOutboxSize = 250

[Config Scenario2Inbox1000]
extends = Scenario2
**.configName = "Scenario2Inbox1000"
**.maxInboxSize = 1000

[Config Scenario2V1Inbox1000]
extends = Scenario2Inbox1000
network = Scenario1V1
**.configName = "Scenario2V1Inbox1000"
**.maxOutboxSize = 250

[Config Scenario2Inbox2000]
extends = Scenario2
**.configName = "Scenario2Inbox2000"
**.maxInboxSize = 2000

[Config Scenario2V1Inbox2000]
extends = Scenario2Inbox2000
network = Scenario1V1
**.configName = "Scenario2V1Inbox2000"
**.maxOutboxSize = 250



# Outbox test series for Thesis
[Config Scenario2V1Outbox100]
extends = Scenario2
network = Scenario1V1
**.configName = "Scenario2V1Outbox100"
**.maxOutboxSize = 100

[Config Scenario2V1Outbox500]
extends = Scenario2
network = Scenario1V1
**.configName = "Scenario2V1Outbox500"
**.maxOutboxSize = 500

[Config Scenario2V1Outbox1000]
extends = Scenario2
network = Scenario1V1
**.configName = "Scenario2V1Outbox1000"
**.maxOutboxSize = 1000

[Config Scenario2V1Outbox2000]
extends = Scenario2
network = Scenario1V1
**.configName = "Scenario2V1Outbox2000"
**.maxOutboxSize = 2000





















# Thesis macrobenchmarks
[Config MacroBasic1000]
network = DynamicNetworkBasic
**.configName = "MacroBasic1000"

**.verboseLog = false
sim-time-limit = 180s

*.config.constant = 0.5
*.config.aws = 0.25
*.config.azure = 0.15
*.config.didata = 0.1

*.config.minProcessingScale = 0.9
*.config.maxProcessingScale = 3.5
*.config.minGenerationThreshold = 1.3

**.maxInboxSize = 250

*.config.networkProcessingRate = 100
*.config.networkGenerationRate = 100
*.config.n = 1000


[Config MacroFFA1000]
extends = MacroBasic1000
**.configName = "MacroFFA1000"
*.config.networkGenerationRate = 200

**.cappedProcessingRate = false
*.config.minGenerationThreshold = 2.2


[Config MacroHealthor1000]
extends = MacroBasic1000

network = DynamicNetworkV1
**.configName = "MacroHealthor1000"

**.maxOutboxSize = 250


[Config MacroBasic5000]
extends = MacroBasic1000
**.configName = "MacroBasic5000"
*.config.n = 5000

[Config MacroFFA5000]
extends = MacroFFA1000
**.configName = "MacroFFA5000"
*.config.n = 5000

[Config MacroHealthor5000]
extends = MacroHealthor1000
**.configName = "MacroHealthor5000"
*.config.n = 5000


[Config MacroBasic10000]
extends = MacroBasic1000
**.configName = "MacroBasic10000"
*.config.n = 10000

[Config MacroFFA10000]
extends = MacroFFA1000
**.configName = "MacroFFA10000"
*.config.n = 10000

[Config MacroHealthor10000]
extends = MacroHealthor1000
**.configName = "MacroHealthor10000"
*.config.n = 10000


[Config MacroBasic100]
extends = MacroBasic1000
**.configName = "MacroBasic100"
*.config.n = 100

[Config MacroFFA100]
extends = MacroFFA1000
**.configName = "MacroFFA100"
*.config.n = 100

[Config MacroHealthor100]
extends = MacroHealthor1000
**.configName = "MacroHealthor100"
*.config.n = 100


[Config MacroBasic500]
extends = MacroBasic1000
**.configName = "MacroBasic500"
*.config.n = 500

[Config MacroFFA500]
extends = MacroFFA1000
**.configName = "MacroFFA500"
*.config.n = 500

[Config MacroHealthor500]
extends = MacroHealthor1000
**.configName = "MacroHealthor500"
*.config.n = 500


[Config MacroBasic2000]
extends = MacroBasic1000
**.configName = "MacroBasic2000"
*.config.n = 2000

[Config MacroFFA2000]
extends = MacroFFA1000
**.configName = "MacroFFA2000"
*.config.n = 2000

[Config MacroHealthor2000]
extends = MacroHealthor1000
**.configName = "MacroHealthor2000"
*.config.n = 2000




# Thesis tests with Healthor FFA vs unaided FFA
[Config MacroHealthorFFA100T200]
extends = MacroHealthor1000
**.configName = "MacroHealthorFFA100T200"

*.config.n = 100
*.config.networkGenerationRate = 200

**.cappedProcessingRate = false # enable FFA mode
*.config.minGenerationThreshold = 2.2
**.disableDefenseEngine = true

[Config MacroHealthorFFA100T120]
extends = MacroHealthorFFA100T200
**.configName = "MacroHealthorFFA100T120"

*.config.networkGenerationRate = 120

[Config MacroHealthorFFA100T150]
extends = MacroHealthorFFA100T200
**.configName = "MacroHealthorFFA100T150"

*.config.networkGenerationRate = 150

[Config MacroHealthorFFA100T170]
extends = MacroHealthorFFA100T200
**.configName = "MacroHealthorFFA100T170"

*.config.networkGenerationRate = 170

[Config MacroFFA100T120]
extends = MacroFFA100
**.configName = "MacroFFA100T120"

*.config.networkGenerationRate = 120

[Config MacroFFA100T150]
extends = MacroFFA100
**.configName = "MacroFFA100T150"

*.config.networkGenerationRate = 150

[Config MacroFFA100T170]
extends = MacroFFA100
**.configName = "MacroFFA100T170"

*.config.networkGenerationRate = 170



# macro sensitivity experiments
[Config MacroBasicSensitivity100T102]
extends = MacroBasic100
**.configName = "MacroBasicSensitivity100T102"
*.config.networkGenerationRate = 102

[Config MacroBasicSensitivity100T104]
extends = MacroBasic100
**.configName = "MacroBasicSensitivity100T104"
*.config.networkGenerationRate = 104

[Config MacroBasicSensitivity100T98]
extends = MacroBasic100
**.configName = "MacroBasicSensitivity100T98"
*.config.networkGenerationRate = 98

[Config MacroBasicSensitivity100T96]
extends = MacroBasic100
**.configName = "MacroBasicSensitivity100T96"
*.config.networkGenerationRate = 96

[Config MacroBasicSensitivity100T94]
extends = MacroBasic100
**.configName = "MacroBasicSensitivity100T94"
*.config.networkGenerationRate = 94

[Config MacroBasicSensitivity100T92]
extends = MacroBasic100
**.configName = "MacroBasicSensitivity100T92"
*.config.networkGenerationRate = 92



[Config MacroHealthorSensitivity100T96]
extends = MacroHealthor100
**.configName = "MacroHealthorSensitivity100T96"
*.config.networkGenerationRate = 96

[Config MacroHealthorSensitivity100T98]
extends = MacroHealthor100
**.configName = "MacroHealthorSensitivity100T98"
*.config.networkGenerationRate = 98

[Config MacroHealthorSensitivity100T102]
extends = MacroHealthor100
**.configName = "MacroHealthorSensitivity100T102"
*.config.networkGenerationRate = 102

[Config MacroHealthorSensitivity100T104]
extends = MacroHealthor100
**.configName = "MacroHealthorSensitivity100T104"
*.config.networkGenerationRate = 104

[Config MacroHealthorSensitivity100T106]
extends = MacroHealthor100
**.configName = "MacroHealthorSensitivity100T106"
*.config.networkGenerationRate = 106

[Config MacroHealthorSensitivity100T103]
extends = MacroHealthor100
**.configName = "MacroHealthorSensitivity100T103"
*.config.networkGenerationRate = 103

[Config MacroHealthorSensitivity100T108]
extends = MacroHealthor100
**.configName = "MacroHealthorSensitivity100T108"
*.config.networkGenerationRate = 108

[Config MacroHealthorSensitivity100T110]
extends = MacroHealthor100
**.configName = "MacroHealthorSensitivity100T110"
*.config.networkGenerationRate = 110

[Config MacroHealthorSensitivity100T112]
extends = MacroHealthor100
**.configName = "MacroHealthorSensitivity100T112"
*.config.networkGenerationRate = 112

[Config MacroHealthorSensitivity100T114]
extends = MacroHealthor100
**.configName = "MacroHealthorSensitivity100T114"
*.config.networkGenerationRate = 114

[Config MacroHealthorSensitivity100T116]
extends = MacroHealthor100
**.configName = "MacroHealthorSensitivity100T116"
*.config.networkGenerationRate = 116

[Config MacroHealthorSensitivity100T118]
extends = MacroHealthor100
**.configName = "MacroHealthorSensitivity100T118"
*.config.networkGenerationRate = 118

[Config MacroHealthorSensitivity100T120]
extends = MacroHealthor100
**.configName = "MacroHealthorSensitivity100T120"
*.config.networkGenerationRate = 120

[Config MacroHealthorSensitivity100T122]
extends = MacroHealthor100
**.configName = "MacroHealthorSensitivity100T122"
*.config.networkGenerationRate = 122

[Config MacroHealthorSensitivity100T124]
extends = MacroHealthor100
**.configName = "MacroHealthorSensitivity100T124"
*.config.networkGenerationRate = 124

[Config MacroHealthorSensitivity100T126]
extends = MacroHealthor100
**.configName = "MacroHealthorSensitivity100T126"
*.config.networkGenerationRate = 126

[Config MacroHealthorSensitivity100T140]
extends = MacroHealthor100
**.configName = "MacroHealthorSensitivity100T140"
*.config.networkGenerationRate = 140

[Config MacroHealthorSensitivity100T160]
extends = MacroHealthor100
**.configName = "MacroHealthorSensitivity100T160"
*.config.networkGenerationRate = 160
*.config.minGenerationThreshold = 2.2

[Config MacroHealthorSensitivity100T180]
extends = MacroHealthor100
**.configName = "MacroHealthorSensitivity100T180"
*.config.networkGenerationRate = 180
*.config.minGenerationThreshold = 2.2

[Config MacroHealthorSensitivity100T200]
extends = MacroHealthor100
**.configName = "MacroHealthorSensitivity100T200"
*.config.networkGenerationRate = 200
*.config.minGenerationThreshold = 2.2




# Macro utilization experiments
[Config MacroHealthorUtilizationN100T106]
extends = MacroHealthor1000
**.configName = "MacroHealthorUtilizationN100T106"
*.config.n = 100
*.config.networkGenerationRate = 106



[Config MacroHealthorUtilizationN500T128]
extends = MacroHealthor1000
**.configName = "MacroHealthorUtilizationN500T128"
*.config.n = 500
*.config.networkGenerationRate = 128

[Config MacroHealthorUtilizationN500T126]
extends = MacroHealthor1000
**.configName = "MacroHealthorUtilizationN500T126"
*.config.n = 500
*.config.networkGenerationRate = 126

[Config MacroHealthorUtilizationN500T124]
extends = MacroHealthor1000
**.configName = "MacroHealthorUtilizationN500T124"
*.config.n = 500
*.config.networkGenerationRate = 124




[Config MacroHealthorUtilizationN1000T116]
extends = MacroHealthor1000
**.configName = "MacroHealthorUtilizationN1000T116"
*.config.n = 1000
*.config.networkGenerationRate = 116

[Config MacroHealthorUtilizationN1000T114]
extends = MacroHealthor1000
**.configName = "MacroHealthorUtilizationN1000T114"
*.config.n = 1000
*.config.networkGenerationRate = 114

[Config MacroHealthorUtilizationN1000T112]
extends = MacroHealthor1000
**.configName = "MacroHealthorUtilizationN1000T112"
*.config.n = 1000
*.config.networkGenerationRate = 112



[Config MacroHealthorUtilizationN2000T110]
extends = MacroHealthor1000
**.configName = "MacroHealthorUtilizationN2000T110"
*.config.n = 2000
*.config.networkGenerationRate = 110

[Config MacroHealthorUtilizationN2000T108]
extends = MacroHealthor1000
**.configName = "MacroHealthorUtilizationN2000T108"
*.config.n = 2000
*.config.networkGenerationRate = 108

[Config MacroHealthorUtilizationN2000T106]
extends = MacroHealthor1000
**.configName = "MacroHealthorUtilizationN2000T106"
*.config.n = 2000
*.config.networkGenerationRate = 106



[Config DynamicBasic100]
network = DynamicNetworkBasic
**.configName = "DynamicBasic100"

**.verboseLog = false
sim-time-limit = 180s

*.config.networkProcessingRate = 100
*.config.n = 100
*.config.minProcessingScale = 0.9
*.config.maxProcessingScale = 3.5
*.config.minGenerationThreshold = 1.3

**.maxInboxSize = 250

[Config DynamicBasic100FFA]
extends = DynamicBasic100
**.configName = "DynamicBasic100FFA"
*.config.networkGenerationRate = 200

**.cappedProcessingRate = false
*.config.minGenerationThreshold = 2.2

[Config DynamicV1100]
extends = DynamicBasic100

network = DynamicNetworkV1
**.configName = "DynamicV1100"
*.config.networkGenerationRate = 200

**.maxOutboxSize = 250
*.config.minGenerationThreshold = 2.2


[Config DynamicBasic1000]
extends = DynamicBasic100
**.configName = "DynamicBasic1000"

*.config.n = 1000

[Config DynamicBasic1000FFA]
extends = DynamicBasic1000
**.configName = "DynamicBasic1000FFA"

**.cappedProcessingRate = false

[Config DynamicV11000]
extends = DynamicV1100
**.configName = "DynamicV11000"

*.config.n = 1000



[Config DynamicBasic2000]
extends = DynamicBasic100
**.configName = "DynamicBasic2000"

*.config.n = 2000

[Config DynamicBasic2000FFA]
extends = DynamicBasic2000
**.configName = "DynamicBasic2000FFA"

**.cappedProcessingRate = false

[Config DynamicV12000]
extends = DynamicV1100
**.configName = "DynamicV12000"

*.config.n = 2000





# test series
[Config BasicInbox100]
network = DynamicNetworkBasic

**.verboseLog = false
sim-time-limit = 180s

*.config.networkProcessingRate = 100
*.config.n = 100

**.configName = "BasicInbox100"
**.maxInboxSize = 100

[Config BasicInbox100FFA]
extends = BasicInbox100
**.configName = "BasicInbox100FFA"
**.cappedProcessingRate = false

[Config V1Inbox100Outbox50]
extends = BasicInbox100
network = DynamicNetworkV1

**.configName = "V1Inbox100Outbox50"
**.maxInboxSize = 100
**.maxOutboxSize = 50

[Config V1Inbox100Outbox100]
extends = BasicInbox100
network = DynamicNetworkV1

**.configName = "V1Inbox100Outbox100"
**.maxInboxSize = 100
**.maxOutboxSize = 100

[Config V1Inbox100Outbox200]
extends = BasicInbox100
network = DynamicNetworkV1

**.configName = "V1Inbox100Outbox200"
**.maxInboxSize = 100
**.maxOutboxSize = 200



[Config BasicInbox500]
extends = BasicInbox100
**.configName = "BasicInbox500"
**.maxInboxSize = 500

[Config BasicInbox500FFA]
extends = BasicInbox500
**.configName = "BasicInbox500FFA"
**.cappedProcessingRate = false

[Config V1Inbox500Outbox100]
extends = BasicInbox500
network = DynamicNetworkV1

**.configName = "V1Inbox500Outbox100"
**.maxInboxSize = 500
**.maxOutboxSize = 100

[Config V1Inbox500Outbox500]
extends = BasicInbox500
network = DynamicNetworkV1

**.configName = "V1Inbox500Outbox500"
**.maxInboxSize = 500
**.maxOutboxSize = 500

[Config V1Inbox500Outbox1000]
extends = BasicInbox500
network = DynamicNetworkV1

**.configName = "V1Inbox500Outbox1000"
**.maxInboxSize = 500
**.maxOutboxSize = 1000



[Config BasicInbox100Generation90]
extends = BasicInbox100
**.configName = "BasicInbox100Generation90"

*.config.networkGenerationRate = 90
**.maxInboxSize = 100

[Config BasicInbox100Generation90FFA]
extends = BasicInbox100Generation90
**.configName = "BasicInbox100Generation90FFA"
**.cappedProcessingRate = false

[Config V1Inbox100Outbox50Generation90]
extends = BasicInbox100Generation90
network = DynamicNetworkV1

**.configName = "V1Inbox100Outbox50Generation90"
**.maxInboxSize = 100
**.maxOutboxSize = 50

[Config V1Inbox100Outbox100Generation90]
extends = BasicInbox100Generation90
network = DynamicNetworkV1

**.configName = "V1Inbox100Outbox100Generation90"
**.maxInboxSize = 100
**.maxOutboxSize = 100

[Config V1Inbox100Outbox200Generation90]
extends = BasicInbox100Generation90
network = DynamicNetworkV1

**.configName = "V1Inbox100Outbox200Generation90"
**.maxInboxSize = 100
**.maxOutboxSize = 200



[Config BasicInbox500Generation90]
extends = BasicInbox100
**.configName = "BasicInbox500Generation90"

*.config.networkGenerationRate = 90
**.maxInboxSize = 500

[Config BasicInbox500Generation90FFA]
extends = BasicInbox500Generation90
**.configName = "BasicInbox500Generation90FFA"
**.cappedProcessingRate = false

[Config V1Inbox500Outbox100Generation90]
extends = BasicInbox500Generation90
network = DynamicNetworkV1

**.configName = "V1Inbox500Outbox100Generation90"
**.maxInboxSize = 500
**.maxOutboxSize = 100

[Config V1Inbox500Outbox500Generation90]
extends = BasicInbox500Generation90
network = DynamicNetworkV1

**.configName = "V1Inbox500Outbox500Generation90"
**.maxInboxSize = 500
**.maxOutboxSize = 500

[Config V1Inbox500Outbox1000Generation90]
extends = BasicInbox500Generation90
network = DynamicNetworkV1

**.configName = "V1Inbox500Outbox1000Generation90"
**.maxInboxSize = 500
**.maxOutboxSize = 1000
